!B3LYP 6-31G(d,p) OPT FREQ
%maxcore 4000
%pal
 nprocs 16
end
* XYZ 0  1
C     -1.852554    0.815925    0.084698
  C     -5.338026   -0.304664    1.128252
  C     -6.665510    0.232659    1.072704
  C     -6.891006    1.505479    0.518437
  C     -7.734157   -0.550337    1.596041
  H     -8.743216   -0.147954    1.548194
  C     -7.507611   -1.783131    2.157162
  H     -8.349988   -2.345693    2.548875
  C     -6.195976   -2.328400    2.239602
  C     -5.989463   -3.701957    2.899868
  C     -5.150994   -1.574812    1.718009
  H     -4.146237   -1.971307    1.775327
  H      0.593786    5.912959   -0.011494
  C     -2.082690    2.126211   -0.384113
  C     -3.432027    2.608848   -0.429219
  C     -3.753794    3.870610   -0.991630
  C     -4.499460    1.789586    0.068996
  C     -5.842590    2.298107    0.020975
  C     -4.239281    0.488114    0.589586
  C     -0.538938    0.254619    0.135842
  C     -2.916313    0.022435    0.554149
  H     -2.670639   -0.973092    0.901684
  H     -7.907452    1.890324    0.478774
  H     -7.116109    3.924801   -0.555896
  C     -5.062992    4.369675   -1.052103
  C     -6.088077    3.580693   -0.534865
  H     -2.943029    4.457390   -1.404417
  C     -5.317469    5.746519   -1.697034
  H      6.414418    4.871422    1.071956
  C     -4.887020    5.699046   -3.183060
  H     -3.827181    5.450059   -3.292303
  C     -6.802016    6.155303   -1.638663
  H     -5.464574    4.948216   -3.732961
  H     -5.052740    6.672194   -3.660161
  C     -4.492103    6.826418   -0.957109
  H     -7.440934    5.451930   -2.183377
  H     -7.166022    6.221093   -0.607646
  H     -6.931748    7.140930   -2.098078
  H     -3.418384    6.620727   -0.999271
  H     -4.660944    7.810496   -1.409620
  H     -4.780318    6.884374    0.098121
  H     -1.286665    4.509768    0.665603
  C      1.258612    4.619531   -1.611593
  C      0.970309    3.404160   -2.257185
  H      1.589987    3.072231   -3.085583
  C     -0.097971    2.600656   -1.869164
  H     -0.287025    1.669177   -2.393860
  C     -0.943271    2.981689   -0.813680
  C      0.416356    4.990888   -0.554141
  C     -0.661659    4.193044   -0.164867
  C      2.446110    5.480110   -2.081164
  C      3.753563    4.656432   -1.996683
  H      3.956782    4.345696   -0.965920
  C      2.210926    5.914010   -3.548864
  H      3.710317    3.752705   -2.611661
  H      4.603614    5.254853   -2.344589
  C      2.624707    6.749880   -1.226211
  H      2.121039    5.051376   -4.216246
  H      1.292396    6.503583   -3.640268
  H      3.046583    6.527523   -3.905502
  H      2.808065    6.509180   -0.173429
  H      3.485942    7.320745   -1.589182
  H      1.749697    7.406692   -1.279260
  C     -4.511477   -4.136692    2.911069
  H     -4.106290   -4.224410    1.896970
  C     -6.800665   -4.772264    2.128708
  H     -3.883489   -3.435872    3.471377
  H     -4.418859   -5.117847    3.388297
  C     -6.482693   -3.644174    4.366760
  H     -6.466785   -4.841597    1.087898
  H     -6.671778   -5.756388    2.594102
  H     -7.871339   -4.546172    2.120880
  H     -5.919875   -2.899095    4.939023
  H     -7.543423   -3.383383    4.432228
  H     -6.350164   -4.617996    4.852578
  H      5.812894    3.120929    5.005965
  H      7.440554    3.597068    4.503956
  H      6.227290    4.838051    4.841201
  C      1.852591   -0.862771    0.278677
  C      5.309838    0.329895    1.334456
  C      6.641685   -0.199338    1.325592
  C      6.884103   -1.499311    0.845704
  C      7.696784    0.618117    1.822927
  H      8.709036    0.221048    1.812250
  C      7.453555    1.877492    2.314090
  H      8.286263    2.465571    2.688615
  C      6.137395    2.416950    2.347344
  C      5.910841    3.821907    2.930726
  C      5.105392    1.628309    1.852182
  H      4.097621    2.020606    1.872767
  H     -1.855016   -4.545711    0.398573
  C      2.108509   -2.176017   -0.164181
  C      3.452970   -2.665577   -0.124066
  C      3.778011   -3.983762   -0.535351
  C      4.504509   -1.817469    0.359361
  C      5.849064   -2.324135    0.373186
  C      4.224358   -0.498284    0.822110
  C      0.542027   -0.296927    0.211388
  C      2.896102   -0.050236    0.760810
  H      2.635325    0.953325    1.072158
  H      7.902303   -1.881517    0.851621
  H      7.136036   -3.982966   -0.065144
  C      5.088519   -4.482424   -0.532592
  C      6.106689   -3.642632   -0.085102
  H      2.965835   -4.622268   -0.859930
  C      5.348096   -5.926578   -1.004500
  H      7.802117    4.637594    2.142898
  C      6.846157   -6.287122   -0.992560
  H      7.427317   -5.630326   -1.648920
  C      4.605460   -6.909328   -0.067458
  H      7.273671   -6.230422    0.014284
  H      6.980672   -7.313954   -1.348823
  C      4.826464   -6.102388   -2.451274
  H      4.962150   -6.810622    0.963436
  H      3.525863   -6.731326   -0.065737
  H      4.774351   -7.944058   -0.388122
  H      5.341267   -5.421552   -3.137866
  H      5.001957   -7.128225   -2.795571
  H      3.752999   -5.905579   -2.528189
  H      0.002754   -3.188064    1.231756
  C     -1.179088   -4.594683   -1.655639
  C     -0.151639   -4.157144   -2.502668
  H     -0.170678   -4.406217   -3.557784
  C      0.913034   -3.389561   -2.024421
  H      1.686648   -3.060389   -2.712895
  C      0.991958   -3.019671   -0.675277
  C     -1.088443   -4.225144   -0.301867
  C     -0.033674   -3.454645    0.179252
  C     -2.367393   -5.442678   -2.145672
  C     -2.294295   -5.734171   -3.657120
  H     -2.314492   -4.813720   -4.250324
  C     -2.378842   -6.794873   -1.392778
  H     -1.390522   -6.293155   -3.922471
  H     -3.156016   -6.339202   -3.958348
  C     -3.689881   -4.688235   -1.866421
  H     -1.457885   -7.356953   -1.581550
  H     -2.468960   -6.658020   -0.310724
  H     -3.225097   -7.409174   -1.721978
  H     -3.712683   -3.729159   -2.394181
  H     -4.546955   -5.283061   -2.203097
  H     -3.826263   -4.482647   -0.800304
  C      4.430119    4.246426    2.892805
  H      4.039228    4.277464    1.869811
  C      6.730100    4.856397    2.120591
  H      3.796642    3.572989    3.479902
  H      4.323741    5.250785    3.316208
  C      6.378535    3.842736    4.407258
  H      6.587413    5.861803    2.533514
*

