!B3LYP 6-31G(d,p) OPT FREQ
%maxcore 4000
%pal
 nprocs 2
end
%scf
   brokensym 1,1
   maxiter 200
   DIISMaxEq 10
   directresetfreq 10
end
* XYZ 0  3
H      1.21940   -0.16520    2.16000
C      0.68250   -0.09240    1.20870
C     -0.70750   -0.03520    1.19730
H     -1.26440   -0.06300    2.13930
C     -1.38980    0.05720   -0.01140
C     -0.68240    0.09250   -1.20880
H     -1.21940    0.16520   -2.15990
C      0.70750    0.03520   -1.19730
H      1.26410    0.06280   -2.13950
C      1.38990   -0.05720    0.01140
C      2.78867   -0.11475    0.02304
H      3.40907   -0.11868   -0.78538
H      3.14673   -0.19580    1.06993
C     -2.78857    0.11462   -0.02291
H     -5.54265    0.19380    0.29935
H     -3.27119    0.22781   -1.01540
C     -3.55854    0.04826    1.19061
C     -5.06458    0.09411    1.33392
H     -2.95560   -0.07527    2.22373
H     -5.63706    0.11023    2.29393
*

