!B3LYP 6-31G(d,p) OPT FREQ
%maxcore 4000
%pal
 nprocs 8
end
%scf
   brokensym 1,1
   maxiter 200
   DIISMaxEq 10
   directresetfreq 10
end
%geom
    Calc_Hess true # Request an exact Hessian in the first optimization step
    NumHess true #  Request the numerical exact Hessian
    Recalc_Hess 5 # Recalculate the exact Hessian every 5 steps.
end
* XYZ 0  3
C     -3.10396    1.23147    0.09393
C     -1.92413    1.19116    0.04646
C     -4.57216    1.29893    0.19495
C     -0.45155    1.15175    0.03160
O     -5.20280    2.96906   -1.41441
O      0.07929   -1.14375   -0.44455
C      0.10889   -0.22059    0.34439
H     -0.07166    1.88061    0.75156
O      0.34122   -0.39743    1.61929
H     -0.09567    1.46220   -0.95323
C     -5.13712    2.63260   -0.24899
H     -5.00936    0.50842   -0.41844
H     -4.86431    1.09775    1.22883
O     -5.25673    3.48776    0.73339
*

