!B3LYP 6-31G(d,p) OPT FREQ
%maxcore 4000
%pal
 nprocs 16
end
* XYZ 0  3
  C     -1.849318    0.819655    0.103123
  C     -5.336465   -0.310413    1.136919
  C     -6.662828    0.219157    1.073349
  C     -6.891661    1.494744    0.510062
  C     -7.729618   -0.562553    1.593871
  H     -8.739890   -0.163802    1.540502
  C     -7.502012   -1.794566    2.161227
  H     -8.344757   -2.357762    2.551252
  C     -6.190767   -2.334361    2.250564
  C     -5.981022   -3.706098    2.915347
  C     -5.145954   -1.578056    1.731850
  H     -4.139772   -1.970003    1.794694
  H      0.637515    5.876891    0.000986
  C     -2.085647    2.123751   -0.379438
  C     -3.433012    2.601783   -0.427893
  C     -3.755123    3.867094   -0.992555
  C     -4.499007    1.782918    0.069834
  C     -5.843569    2.287781    0.014159
  C     -4.236117    0.485573    0.599826
  C     -0.533057    0.264147    0.155827
  C     -2.912136    0.026324    0.576962
  H     -2.663483   -0.964888    0.934921
  H     -7.909477    1.875424    0.465673
  H     -7.118999    3.909822   -0.571989
  C     -5.063815    4.362369   -1.059340
  C     -6.090019    3.568620   -0.546054
  H     -2.941928    4.455802   -1.398127
  C     -5.319994    5.739492   -1.703334
  H      6.443625    4.854315    1.104408
  C     -4.880094    5.697391   -3.186660
  H     -3.818192    5.454655   -3.289884
  C     -6.806575    6.142243   -1.653395
  H     -5.449917    4.944502   -3.741824
  H     -5.048223    6.670515   -3.662964
  C     -4.503709    6.821170   -0.955875
  H     -7.439663    5.437185   -2.202709
  H     -7.177013    6.205834   -0.624538
  H     -6.937210    7.127885   -2.112538
  H     -3.429017    6.619311   -0.991399
  H     -4.673182    7.805533   -1.407518
  H     -4.799022    6.875878    0.097552
  H     -1.230401    4.468769    0.706439
  C      1.236066    4.621043   -1.653945
  C      0.916684    3.424796   -2.320364
  H      1.506363    3.109380   -3.176669
  C     -0.144805    2.619425   -1.916877
  H     -0.359233    1.702464   -2.457672
  C     -0.948623    2.979197   -0.823297
  C      0.434787    4.969957   -0.557933
  C     -0.635199    4.169169   -0.151919
  C      2.417844    5.481830   -2.137843
  C      3.722224    4.650749   -2.075851
  H      3.934867    4.328955   -1.050504
  C      2.165298    5.925408   -3.599431
  H      3.664361    3.753075   -2.698661
  H      4.572001    5.246940   -2.428350
  C      2.612796    6.746946   -1.279524
  H      2.059952    5.068388   -4.271578
  H      1.250535    6.523051   -3.674997
  H      3.000984    6.534361   -3.963542
  H      2.825626    6.501449   -0.233495
  H      3.461424    7.324188   -1.661549
  H      1.732954    7.398915   -1.305379
  C     -4.501899   -4.137259    2.926570
  H     -4.096336   -4.223979    1.912488
  C     -6.789753   -4.780658    2.148118
  H     -3.875579   -3.435055    3.487045
  H     -4.407090   -5.118041    3.404221
  C     -6.473510   -3.644355    4.382095
  H     -6.457276   -4.851410    1.106930
  H     -6.656963   -5.763273    2.615533
  H     -7.861234   -4.558444    2.141316
  H     -5.910474   -2.897645    4.952046
  H     -7.534147   -3.382874    4.446728
  H     -6.340986   -4.616729    4.870780
  H      5.825034    3.119721    5.042244
  H      7.456956    3.583932    4.543212
  H      6.250460    4.833570    4.872629
  C      1.861891   -0.848421    0.291076
  C      5.321748    0.322126    1.367890
  C      6.647663   -0.212422    1.365434
  C      6.886102   -1.518505    0.880979
  C      7.703691    0.594961    1.868367
  H      8.713619    0.191795    1.862878
  C      7.466327    1.857523    2.359694
  H      8.301273    2.439672    2.738511
  C      6.155195    2.404464    2.385571
  C      5.933229    3.812584    2.965077
  C      5.120816    1.621748    1.885437
  H      4.115155    2.019784    1.900492
  H     -1.810503   -4.594629    0.408522
  C      2.114977   -2.160926   -0.157329
  C      3.454233   -2.656074   -0.114141
  C      3.774385   -3.976119   -0.536739
  C      4.507309   -1.818544    0.380070
  C      5.848675   -2.334263    0.399677
  C      4.232419   -0.499564    0.847072
  C      0.551636   -0.280841    0.226804
  C      2.908124   -0.044380    0.782743
  H      2.650539    0.957835    1.101390
  H      7.902328   -1.905868    0.891019
  H      7.127659   -3.999922   -0.037107
  C      5.079796   -4.484074   -0.525884
  C      6.100722   -3.652570   -0.063286
  H      2.959975   -4.603600   -0.877378
  C      5.335235   -5.924627   -1.011334
  H      7.829258    4.616158    2.177176
  C      6.828008   -6.304046   -0.962650
  H      7.435612   -5.649982   -1.597396
  C      4.555911   -6.913909   -0.111808
  H      7.228033   -6.261154    0.056070
  H      6.959092   -7.329497   -1.324176
  C      4.850999   -6.070470   -2.474421
  H      4.885220   -6.837333    0.930023
  H      3.478665   -6.724255   -0.136202
  H      4.722146   -7.944780   -0.445890
  H      5.391499   -5.384055   -3.135223
  H      5.023558   -7.092387   -2.831629
  H      3.782228   -5.858964   -2.575003
  H      0.046245   -3.237317    1.246264
  C     -1.173052   -4.575258   -1.658338
  C     -0.168521   -4.098757   -2.511527
  H     -0.204031   -4.318112   -3.572798
  C      0.894575   -3.329799   -2.031240
  H      1.651236   -2.971323   -2.724016
  C      0.995040   -3.000067   -0.673875
  C     -1.061436   -4.243807   -0.296300
  C     -0.007305   -3.473671    0.187203
  C     -2.361086   -5.422440   -2.150788
  C     -2.303416   -5.684906   -3.668240
  H     -2.341655   -4.754039   -4.243966
  C     -2.356635   -6.789119   -1.424329
  H     -1.396458   -6.228112   -3.954734
  H     -3.161915   -6.294170   -3.970145
  C     -3.684340   -4.680802   -1.842134
  H     -1.435249   -7.342568   -1.635284
  H     -2.434659   -6.674511   -0.338844
  H     -3.203731   -7.401002   -1.755744
  H     -3.717991   -3.712084   -2.351349
  H     -4.542300   -5.273541   -2.180302
  H     -3.809073   -4.496405   -0.770616
  C      4.454446    4.243154    2.921822
  H      4.066836    4.274481    1.897660
  C      6.758476    4.840703    2.153345
  H      3.816556    3.573143    3.508082
  H      4.351112    5.248644    3.343318
  C      6.396789    3.835895    4.442507
  H      6.620699    5.848023    2.563247
*

