  148
       -193.01205419
 C         -1.9221449931        0.6485312950        0.1554654770
 C         -5.4554659228       -0.4267997571        0.9037545022
 C         -6.7497086516        0.1520390894        0.8066194450
 C         -6.9050049863        1.4711609130        0.3703562045
 C         -7.8660897695       -0.6360003062        1.1635180569
 H         -8.8516697565       -0.2008208703        1.0746867464
 C         -7.7162141156       -1.9154427764        1.6133117756
 H         -8.5957487729       -2.4860037043        1.8709468992
 C         -6.4404153746       -2.4931074374        1.7511557616
 C         -6.3286515813       -3.9137091055        2.2798581633
 C         -5.3457289993       -1.7372689108        1.3856095473
 H         -4.3614981360       -2.1611753747        1.4811490162
 H          0.8475969904        5.5021039491        0.2657811581
 C         -2.0918654021        1.9759360640       -0.2442314644
 C         -3.4003470925        2.5111869174       -0.2942648488
 C         -3.6357094823        3.8208004666       -0.7503860268
 C         -4.5019266968        1.6994985562        0.0869058399
 C         -5.8082767781        2.2612252912        0.0173208230
 C         -4.3113101270        0.3616656295        0.5115514883
 C         -0.6196356259        0.1085853221        0.2201763737
 C         -3.0094168486       -0.1407159305        0.5233099797
 H         -2.8021791360       -1.1566621357        0.8195346492
 H         -7.8999895216        1.8891997500        0.3071493351
 H         -6.9866040697        3.9712300732       -0.4411591607
 C         -4.9071687325        4.3759444970       -0.8052234908
 C         -5.9782219212        3.5913044495       -0.4148813763
 H         -2.7818688863        4.3945586014       -1.0741203101
 C         -5.0642068159        5.8074381761       -1.2962689703
 H          5.7762884068        5.1654897729        0.5629750142
 C         -4.5517708700        5.8970291562       -2.7404071075
 H         -3.5012749157        5.6266083775       -2.8053774783
 C         -6.5191083851        6.2829732233       -1.2733048562
 H         -5.1168633604        5.2240176714       -3.3822239362
 H         -4.6670394061        6.9113515036       -3.1170648017
 C         -4.2417858197        6.7382638566       -0.3941382645
 H         -7.1403236869        5.6746195215       -1.9266855242
 H         -6.9246904711        6.2523317565       -0.2645061541
 H         -6.5700740251        7.3116390686       -1.6249328222
 H         -3.1843609074        6.4906232549       -0.4282558373
 H         -4.3596082412        7.7713283727       -0.7149509752
 H         -4.5792665570        6.6568165758        0.6373066923
 H         -1.1656117502        4.2850834916        0.8560618952
 C          1.4519904041        4.1546602738       -1.2968029976
 C          1.0851988594        2.9852534091       -1.9597141681
 H          1.7044907588        2.5962826948       -2.7539114822
 C         -0.0614754569        2.2957566790       -1.6282098070
 H         -0.3212018096        1.3960538530       -2.1666592554
 C         -0.8998102585        2.7533539622       -0.6145915744
 C          0.6125016609        4.6050651525       -0.2849044669
 C         -0.5428611338        3.9201795503        0.0507860247
 C          2.7239509701        4.8771389403       -1.7120276642
 C          3.9190572465        3.9253363859       -1.5583222696
 H          4.0158628292        3.5914640670       -0.5276326423
 C          2.5916413924        5.3046544623       -3.1813931894
 H          3.8089584438        3.0439695422       -2.1837785570
 H          4.8400648030        4.4293605789       -1.8453910572
 C          2.9919054154        6.1327305659       -0.8774800931
 H          2.4601691674        4.4452921239       -3.8329133729
 H          1.7334023700        5.9619744282       -3.3067297964
 H          3.4849510836        5.8391801693       -3.4980080271
 H          3.0985920348        5.8918815022        0.1773441686
 H          3.9171582205        6.5994060578       -1.2102973333
 H          2.1900581079        6.8582328448       -0.9954428981
 C         -4.8788167554       -4.3660020471        2.4720419261
 H         -4.3501084543       -4.3872482824        1.5223545044
 C         -6.9990934802       -4.8639903905        1.2769426856
 H         -4.3516557944       -3.7118906393        3.1633977134
 H         -4.8642197561       -5.3737835147        2.8830508045
 C         -7.0340318497       -4.0081232591        3.6405763625
 H         -6.5066880828       -4.7952490193        0.3090041712
 H         -6.9299875938       -5.8913698646        1.6287473796
 H         -8.0490702218       -4.6183191918        1.1426183426
 H         -6.5878490905       -3.3079062444        4.3439720535
 H         -8.0932774283       -3.7818938847        3.5601402451
 H         -6.9336657537       -5.0137597658        4.0439459178
 H          6.1913174096        3.4151021362        4.4697651165
 H          7.5977574426        4.1139257068        3.6704243108
 H          6.3275691577        5.1663772105        4.2853491218
 C          1.8311118547       -0.8058504293        0.2899756609
 C          5.2490458970        0.6336011163        0.9484677030
 C          6.5943526776        0.2119849276        0.7725715859
 C          6.8763043160       -1.0819480857        0.3236720732
 C          7.6273286363        1.1216864454        1.0895821791
 H          8.6511833542        0.8124400781        0.9322917433
 C          7.3516633188        2.3578470011        1.5980178596
 H          8.1702095062        3.0225767680        1.8299031110
 C          6.0269255868        2.7672190885        1.8394830133
 C          5.7766597441        4.1291227129        2.4657466373
 C          5.0103292149        1.8995226954        1.4972843332
 H          3.9893221556        2.1892993097        1.6757720299
 H         -1.9506116222       -4.0836451834        0.7370905769
 C          2.1258336845       -2.1195541600       -0.0809573154
 C          3.4813193917       -2.5242440427       -0.1363105806
 C          3.8389201446       -3.8441654252       -0.4652636915
 C          4.5033392442       -1.5877575333        0.1731963519
 C          5.8600419173       -2.0024334665        0.0535789842
 C          4.1851573699       -0.2712259849        0.5859009359
 C          0.4985179550       -0.3416373227        0.2756994986
 C          2.8404360592        0.0976295019        0.6171670734
 H          2.5397336683        1.1024275697        0.8693874728
 H          7.9077663994       -1.3839738424        0.2068539364
 H          7.1981233409       -3.5849822854       -0.4250461823
 C          5.1610211192       -4.2539346281       -0.5790292417
 C          6.1562240264       -3.3229319123       -0.3377438997
 H          3.0400397884       -4.5506682493       -0.6255764478
 C          5.4530077034       -5.6978145949       -0.9602170813
 H          7.3604506866        5.1060986289        1.3316630456
 C          6.9518730129       -5.9851411850       -1.0801719373
 H          7.4088758679       -5.3640731856       -1.8473064807
 C          4.8710706115       -6.6230165402        0.1174598334
 H          7.4602011276       -5.8156802230       -0.1337359971
 H          7.1004288949       -7.0266816044       -1.3585019419
 C          4.7977243610       -6.0011984971       -2.3149948194
 H          5.3192146829       -6.4022880006        1.0842427134
 H          3.7949260910       -6.5003701873        0.2054264431
 H          5.0771359484       -7.6625480074       -0.1293776408
 H          5.1802357988       -5.3252381221       -3.0773633708
 H          5.0189107494       -7.0226898691       -2.6176988723
 H          3.7181062440       -5.8876650734       -2.2679962435
 H         -0.0215873631       -2.7677019177        1.4019842702
 C         -1.2244182823       -4.5361751430       -1.2335831893
 C         -0.1478547831       -4.3465446103       -2.0915928091
 H         -0.1521300908       -4.7750488714       -3.0809455051
 C          0.9500133602       -3.5943997961       -1.7142024287
 H          1.7567996418       -3.4377219000       -2.4168639471
 C          1.0132764780       -3.0014081781       -0.4580937471
 C         -1.1446268746       -3.9543150906        0.0299170027
 C         -0.0542850949       -3.2023662667        0.4133557620
 C         -2.4731892545       -5.3090929282       -1.6270990194
 C         -2.3628939340       -5.9426645620       -3.0168631320
 H         -2.2419406741       -5.1834862953       -3.7860128800
 C         -2.7253655909       -6.4348021571       -0.6141348985
 H         -1.5263321902       -6.6362917326       -3.0648038125
 H         -3.2732634049       -6.4974707625       -3.2354120148
 C         -3.6615187131       -4.3360927030       -1.6379587400
 H         -1.8796509080       -7.1193285072       -0.5960169646
 H         -2.8692498370       -6.0479537884        0.3904524222
 H         -3.6162589608       -6.9945764872       -0.8916535093
 H         -3.4897365224       -3.5403652022       -2.3599705339
 H         -4.5752082234       -4.8599369597       -1.9121300647
 H         -3.8098432134       -3.8756528480       -0.6651148952
 C          4.2936089928        4.3931401190        2.7417634367
 H          3.7089480353        4.3756870605        1.8248382579
 C          6.2956014379        5.2189123742        1.5167008140
 H          3.8881313851        3.6571023763        3.4325834774
 H          4.1789060951        5.3770395447        3.1929019831
 C          6.5241791598        4.2098995215        3.8052252203
 H          6.1267916633        6.2034664695        1.9483551358
